output/1_QUEB_1/Cargas_BT_SA02_1_QUEB_1.dss
New "Load.BT_233150_M1" bus1="UC233150.1.2.3.4" phases=3 conn=delta model=2 kv=0.38 kw = 1.6274870752106234 pf=0.92 status=variable vmaxpu=1.5 vminpu=0.93 daily="RU8_SA" 
New "Load.BT_233150_M2" bus1="UC233150.1.2.3.4" phases=3 conn=delta model=3 kv=0.38 kw = 1.6274870752106234 pf=0.92 status=variable vmaxpu=1.5 vminpu=0.93 daily="RU8_SA"
 
New "Load.BT_233144_M1" bus1="UC233144.1.2.4" phases=2 conn=delta model=2 kv=0.38 kw = 0.3208170216300973 pf=0.92 status=variable vmaxpu=1.5 vminpu=0.93 daily="RU5_SA" 
New "Load.BT_233144_M2" bus1="UC233144.1.2.4" phases=2 conn=delta model=3 kv=0.38 kw = 0.3208170216300973 pf=0.92 status=variable vmaxpu=1.5 vminpu=0.93 daily="RU5_SA"
 
New "Load.BT_232530_M1" bus1="UC232530.1.2.4" phases=2 conn=delta model=2 kv=0.38 kw = 0.3699974397176972 pf=0.92 status=variable vmaxpu=1.5 vminpu=0.93 daily="RU3_SA" 
New "Load.BT_232530_M2" bus1="UC232530.1.2.4" phases=2 conn=delta model=3 kv=0.38 kw = 0.3699974397176972 pf=0.92 status=variable vmaxpu=1.5 vminpu=0.93 daily="RU3_SA"
 
New "Load.BT_231938_M1" bus1="UC231938.1.4" phases=1 conn=delta model=2 kv=0.22 kw = 0.3890478035586755 pf=0.92 status=variable vmaxpu=1.5 vminpu=0.93 daily="RU6_SA" 
New "Load.BT_231938_M2" bus1="UC231938.1.4" phases=1 conn=delta model=3 kv=0.22 kw = 0.3890478035586755 pf=0.92 status=variable vmaxpu=1.5 vminpu=0.93 daily="RU6_SA"
 
New "Load.BT_2831932_M1" bus1="UC2831932.1.4" phases=1 conn=delta model=2 kv=0.22 kw = 0.3740082520723606 pf=0.92 status=variable vmaxpu=1.5 vminpu=0.93 daily="RU3_SA" 
New "Load.BT_2831932_M2" bus1="UC2831932.1.4" phases=1 conn=delta model=3 kv=0.22 kw = 0.3740082520723606 pf=0.92 status=variable vmaxpu=1.5 vminpu=0.93 daily="RU3_SA"
 
New "Load.BT_231933_M1" bus1="UC231933.1.2.4" phases=2 conn=delta model=2 kv=0.44 kw = 1.397336360877757 pf=0.92 status=variable vmaxpu=1.5 vminpu=0.93 daily="RU5_SA" 
New "Load.BT_231933_M2" bus1="UC231933.1.2.4" phases=2 conn=delta model=3 kv=0.44 kw = 1.397336360877757 pf=0.92 status=variable vmaxpu=1.5 vminpu=0.93 daily="RU5_SA"
 
New "Load.BT_2831495_M1" bus1="UC2831495.1.4" phases=1 conn=delta model=2 kv=0.22 kw = 0.25368388143245907 pf=0.92 status=variable vmaxpu=1.5 vminpu=0.93 daily="RU3_SA" 
New "Load.BT_2831495_M2" bus1="UC2831495.1.4" phases=1 conn=delta model=3 kv=0.22 kw = 0.25368388143245907 pf=0.92 status=variable vmaxpu=1.5 vminpu=0.93 daily="RU3_SA"
 
New "Load.BT_2831490_M1" bus1="UC2831490.1.4" phases=1 conn=delta model=2 kv=0.22 kw = 0.011306261423163029 pf=0.92 status=variable vmaxpu=1.5 vminpu=0.93 daily="RU1_SA" 
New "Load.BT_2831490_M2" bus1="UC2831490.1.4" phases=1 conn=delta model=3 kv=0.22 kw = 0.011306261423163029 pf=0.92 status=variable vmaxpu=1.5 vminpu=0.93 daily="RU1_SA"
 
New "Load.BT_231251_M1" bus1="UC231251.3.4" phases=1 conn=delta model=2 kv=0.22 kw = 0.0 pf=0.92 status=variable vmaxpu=1.5 vminpu=0.93 daily="CO3_SA" 
New "Load.BT_231251_M2" bus1="UC231251.3.4" phases=1 conn=delta model=3 kv=0.22 kw = 0.0 pf=0.92 status=variable vmaxpu=1.5 vminpu=0.93 daily="CO3_SA"
 
New "Load.BT_2831192_M1" bus1="UC2831192.1.4" phases=1 conn=delta model=2 kv=0.22 kw = 0.0487382092124077 pf=0.92 status=variable vmaxpu=1.5 vminpu=0.93 daily="RU7_SA" 
New "Load.BT_2831192_M2" bus1="UC2831192.1.4" phases=1 conn=delta model=3 kv=0.22 kw = 0.0487382092124077 pf=0.92 status=variable vmaxpu=1.5 vminpu=0.93 daily="RU7_SA"
 
New "Load.BT_2831188_M1" bus1="UC2831188.1.4" phases=1 conn=delta model=2 kv=0.22 kw = 0.17791153705173804 pf=0.92 status=variable vmaxpu=1.5 vminpu=0.93 daily="PP3_SA" 
New "Load.BT_2831188_M2" bus1="UC2831188.1.4" phases=1 conn=delta model=3 kv=0.22 kw = 0.17791153705173804 pf=0.92 status=variable vmaxpu=1.5 vminpu=0.93 daily="PP3_SA"
 
New "Load.BT_230656_M1" bus1="UC230656.2.4" phases=1 conn=delta model=2 kv=0.22 kw = 0.09412773996563563 pf=0.92 status=variable vmaxpu=1.5 vminpu=0.93 daily="RU2_SA" 
New "Load.BT_230656_M2" bus1="UC230656.2.4" phases=1 conn=delta model=3 kv=0.22 kw = 0.09412773996563563 pf=0.92 status=variable vmaxpu=1.5 vminpu=0.93 daily="RU2_SA"
 
New "Load.BT_2830653_M1" bus1="UC2830653.2.4" phases=1 conn=delta model=2 kv=0.22 kw = 0.07498311488787925 pf=0.92 status=variable vmaxpu=1.5 vminpu=0.93 daily="RU2_SA" 
New "Load.BT_2830653_M2" bus1="UC2830653.2.4" phases=1 conn=delta model=3 kv=0.22 kw = 0.07498311488787925 pf=0.92 status=variable vmaxpu=1.5 vminpu=0.93 daily="RU2_SA"
 
New "Load.BT_230651_M1" bus1="UC230651.1.4" phases=1 conn=delta model=2 kv=0.22 kw = 0.43501137652251126 pf=0.92 status=variable vmaxpu=1.5 vminpu=0.93 daily="RU4_SA" 
New "Load.BT_230651_M2" bus1="UC230651.1.4" phases=1 conn=delta model=3 kv=0.22 kw = 0.43501137652251126 pf=0.92 status=variable vmaxpu=1.5 vminpu=0.93 daily="RU4_SA"
 
New "Load.BT_230555_M1" bus1="UC230555.1.4" phases=1 conn=delta model=2 kv=0.22 kw = 0.026205504609789838 pf=0.92 status=variable vmaxpu=1.5 vminpu=0.93 daily="RU4_SA" 
New "Load.BT_230555_M2" bus1="UC230555.1.4" phases=1 conn=delta model=3 kv=0.22 kw = 0.026205504609789838 pf=0.92 status=variable vmaxpu=1.5 vminpu=0.93 daily="RU4_SA"
 
New "Load.BT_228394_M1" bus1="UC228394.1.4" phases=1 conn=delta model=2 kv=0.22 kw = 0.4740962652978104 pf=0.92 status=variable vmaxpu=1.5 vminpu=0.93 daily="RU5_SA" 
New "Load.BT_228394_M2" bus1="UC228394.1.4" phases=1 conn=delta model=3 kv=0.22 kw = 0.4740962652978104 pf=0.92 status=variable vmaxpu=1.5 vminpu=0.93 daily="RU5_SA"
 
New "Load.BT_228388_M1" bus1="UC228388.1.4" phases=1 conn=delta model=2 kv=0.22 kw = 0.16881381337704623 pf=0.92 status=variable vmaxpu=1.5 vminpu=0.93 daily="RE1_SA" 
New "Load.BT_228388_M2" bus1="UC228388.1.4" phases=1 conn=delta model=3 kv=0.22 kw = 0.16881381337704623 pf=0.92 status=variable vmaxpu=1.5 vminpu=0.93 daily="RE1_SA"
 
New "Load.BT_227082_M1" bus1="UC227082.2.4" phases=1 conn=delta model=2 kv=0.22 kw = 0.0 pf=0.92 status=variable vmaxpu=1.5 vminpu=0.93 daily="RU7_SA" 
New "Load.BT_227082_M2" bus1="UC227082.2.4" phases=1 conn=delta model=3 kv=0.22 kw = 0.0 pf=0.92 status=variable vmaxpu=1.5 vminpu=0.93 daily="RU7_SA"
 
New "Load.BT_2827937_M1" bus1="UC2827937.1.4" phases=1 conn=delta model=2 kv=0.22 kw = 0.16692836655249638 pf=0.92 status=variable vmaxpu=1.5 vminpu=0.93 daily="RU7_SA" 
New "Load.BT_2827937_M2" bus1="UC2827937.1.4" phases=1 conn=delta model=3 kv=0.22 kw = 0.16692836655249638 pf=0.92 status=variable vmaxpu=1.5 vminpu=0.93 daily="RU7_SA"
 
New "Load.BT_228376_M1" bus1="UC228376.1.4" phases=1 conn=delta model=2 kv=0.22 kw = 0.3472229360797153 pf=0.92 status=variable vmaxpu=1.5 vminpu=0.93 daily="RU4_SA" 
New "Load.BT_228376_M2" bus1="UC228376.1.4" phases=1 conn=delta model=3 kv=0.22 kw = 0.3472229360797153 pf=0.92 status=variable vmaxpu=1.5 vminpu=0.93 daily="RU4_SA"
 
New "Load.BT_226217_M1" bus1="UC226217.1.4" phases=1 conn=delta model=2 kv=0.22 kw = 0.09137875156071264 pf=0.92 status=variable vmaxpu=1.5 vminpu=0.93 daily="RU8_SA" 
New "Load.BT_226217_M2" bus1="UC226217.1.4" phases=1 conn=delta model=3 kv=0.22 kw = 0.09137875156071264 pf=0.92 status=variable vmaxpu=1.5 vminpu=0.93 daily="RU8_SA"
 
New "Load.BT_226224_M1" bus1="UC226224.2.4" phases=1 conn=delta model=2 kv=0.22 kw = 0.11723414166617582 pf=0.92 status=variable vmaxpu=1.5 vminpu=0.93 daily="RE6_SA" 
New "Load.BT_226224_M2" bus1="UC226224.2.4" phases=1 conn=delta model=3 kv=0.22 kw = 0.11723414166617582 pf=0.92 status=variable vmaxpu=1.5 vminpu=0.93 daily="RE6_SA"
 
New "Load.BT_226233_M1" bus1="UC226233.1.2.3.4" phases=3 conn=delta model=2 kv=0.38 kw = 0.7832228310129936 pf=0.92 status=variable vmaxpu=1.5 vminpu=0.93 daily="CO4_SA" 
New "Load.BT_226233_M2" bus1="UC226233.1.2.3.4" phases=3 conn=delta model=3 kv=0.38 kw = 0.7832228310129936 pf=0.92 status=variable vmaxpu=1.5 vminpu=0.93 daily="CO4_SA"
 
New "Load.BT_227077_M1" bus1="UC227077.2.4" phases=1 conn=delta model=2 kv=0.22 kw = 0.46057607705725273 pf=0.92 status=variable vmaxpu=1.5 vminpu=0.93 daily="RU7_SA" 
New "Load.BT_227077_M2" bus1="UC227077.2.4" phases=1 conn=delta model=3 kv=0.22 kw = 0.46057607705725273 pf=0.92 status=variable vmaxpu=1.5 vminpu=0.93 daily="RU7_SA"
 
New "Load.BT_227073_M1" bus1="UC227073.2.4" phases=1 conn=delta model=2 kv=0.22 kw = 0.016043249418653538 pf=0.92 status=variable vmaxpu=1.5 vminpu=0.93 daily="RU3_SA" 
New "Load.BT_227073_M2" bus1="UC227073.2.4" phases=1 conn=delta model=3 kv=0.22 kw = 0.016043249418653538 pf=0.92 status=variable vmaxpu=1.5 vminpu=0.93 daily="RU3_SA"
 
New "Load.BT_2805756_M1" bus1="UC2805756.1.2.3.4" phases=3 conn=delta model=2 kv=0.38 kw = 0.2656316729538701 pf=0.92 status=variable vmaxpu=1.5 vminpu=0.93 daily="RU2_SA" 
New "Load.BT_2805756_M2" bus1="UC2805756.1.2.3.4" phases=3 conn=delta model=3 kv=0.38 kw = 0.2656316729538701 pf=0.92 status=variable vmaxpu=1.5 vminpu=0.93 daily="RU2_SA"
 
New "Load.BT_2805757_M1" bus1="UC2805757.1.2.3.4" phases=3 conn=delta model=2 kv=0.38 kw = 0.2963428423494376 pf=0.92 status=variable vmaxpu=1.5 vminpu=0.93 daily="RU2_SA" 
New "Load.BT_2805757_M2" bus1="UC2805757.1.2.3.4" phases=3 conn=delta model=3 kv=0.38 kw = 0.2963428423494376 pf=0.92 status=variable vmaxpu=1.5 vminpu=0.93 daily="RU2_SA"
 
New "Load.BT_2819390_M1" bus1="UC2819390.1.4" phases=1 conn=delta model=2 kv=0.22 kw = 0.7972008325813897 pf=0.92 status=variable vmaxpu=1.5 vminpu=0.93 daily="RU8_SA" 
New "Load.BT_2819390_M2" bus1="UC2819390.1.4" phases=1 conn=delta model=3 kv=0.22 kw = 0.7972008325813897 pf=0.92 status=variable vmaxpu=1.5 vminpu=0.93 daily="RU8_SA"
 
New "Load.BT_2819375_M1" bus1="UC2819375.1.4" phases=1 conn=delta model=2 kv=0.22 kw = 0.0023930781347195496 pf=0.92 status=variable vmaxpu=1.5 vminpu=0.93 daily="RU2_SA" 
New "Load.BT_2819375_M2" bus1="UC2819375.1.4" phases=1 conn=delta model=3 kv=0.22 kw = 0.0023930781347195496 pf=0.92 status=variable vmaxpu=1.5 vminpu=0.93 daily="RU2_SA"
 
New "Load.BT_2819355_M1" bus1="UC2819355.1.4" phases=1 conn=delta model=2 kv=0.22 kw = 0.0041833167265703216 pf=0.92 status=variable vmaxpu=1.5 vminpu=0.93 daily="RU1_SA" 
New "Load.BT_2819355_M2" bus1="UC2819355.1.4" phases=1 conn=delta model=3 kv=0.22 kw = 0.0041833167265703216 pf=0.92 status=variable vmaxpu=1.5 vminpu=0.93 daily="RU1_SA"
 
New "Load.BT_2822268_M1" bus1="UC2822268.2.4" phases=1 conn=delta model=2 kv=0.22 kw = 0.29973332725532204 pf=0.92 status=variable vmaxpu=1.5 vminpu=0.93 daily="RU6_SA" 
New "Load.BT_2822268_M2" bus1="UC2822268.2.4" phases=1 conn=delta model=3 kv=0.22 kw = 0.29973332725532204 pf=0.92 status=variable vmaxpu=1.5 vminpu=0.93 daily="RU6_SA"
 
New "Load.BT_2806028_M1" bus1="UC2806028.2.4" phases=1 conn=delta model=2 kv=0.22 kw = 0.32546800686815264 pf=0.92 status=variable vmaxpu=1.5 vminpu=0.93 daily="RU6_SA" 
New "Load.BT_2806028_M2" bus1="UC2806028.2.4" phases=1 conn=delta model=3 kv=0.22 kw = 0.32546800686815264 pf=0.92 status=variable vmaxpu=1.5 vminpu=0.93 daily="RU6_SA"
 
New "Load.BT_2806039_M1" bus1="UC2806039.1.2.3.4" phases=3 conn=delta model=2 kv=0.38 kw = 1.3841651416323786 pf=0.92 status=variable vmaxpu=1.5 vminpu=0.93 daily="RU7_SA" 
New "Load.BT_2806039_M2" bus1="UC2806039.1.2.3.4" phases=3 conn=delta model=3 kv=0.38 kw = 1.3841651416323786 pf=0.92 status=variable vmaxpu=1.5 vminpu=0.93 daily="RU7_SA"
 
New "Load.BT_2805793_M1" bus1="UC2805793.2.4" phases=1 conn=delta model=2 kv=0.22 kw = 0.2253673396441926 pf=0.92 status=variable vmaxpu=1.5 vminpu=0.93 daily="RU4_SA" 
New "Load.BT_2805793_M2" bus1="UC2805793.2.4" phases=1 conn=delta model=3 kv=0.22 kw = 0.2253673396441926 pf=0.92 status=variable vmaxpu=1.5 vminpu=0.93 daily="RU4_SA"
 
New "Load.BT_2805784_M1" bus1="UC2805784.1.4" phases=1 conn=delta model=2 kv=0.22 kw = 0.22694833752351323 pf=0.92 status=variable vmaxpu=1.5 vminpu=0.93 daily="RU5_SA" 
New "Load.BT_2805784_M2" bus1="UC2805784.1.4" phases=1 conn=delta model=3 kv=0.22 kw = 0.22694833752351323 pf=0.92 status=variable vmaxpu=1.5 vminpu=0.93 daily="RU5_SA"
 
New "Load.BT_2805785_M1" bus1="UC2805785.1.4" phases=1 conn=delta model=2 kv=0.22 kw = 0.02233539592404913 pf=0.92 status=variable vmaxpu=1.5 vminpu=0.93 daily="RU2_SA" 
New "Load.BT_2805785_M2" bus1="UC2805785.1.4" phases=1 conn=delta model=3 kv=0.22 kw = 0.02233539592404913 pf=0.92 status=variable vmaxpu=1.5 vminpu=0.93 daily="RU2_SA"
 
New "Load.BT_2805790_M1" bus1="UC2805790.2.4" phases=1 conn=delta model=2 kv=0.22 kw = 0.15090282128526797 pf=0.92 status=variable vmaxpu=1.5 vminpu=0.93 daily="RU5_SA" 
New "Load.BT_2805790_M2" bus1="UC2805790.2.4" phases=1 conn=delta model=3 kv=0.22 kw = 0.15090282128526797 pf=0.92 status=variable vmaxpu=1.5 vminpu=0.93 daily="RU5_SA"
 
New "Load.BT_2805782_M1" bus1="UC2805782.2.4" phases=1 conn=delta model=2 kv=0.22 kw = 0.11028470015948079 pf=0.92 status=variable vmaxpu=1.5 vminpu=0.93 daily="RU8_SA" 
New "Load.BT_2805782_M2" bus1="UC2805782.2.4" phases=1 conn=delta model=3 kv=0.22 kw = 0.11028470015948079 pf=0.92 status=variable vmaxpu=1.5 vminpu=0.93 daily="RU8_SA"
 
New "Load.BT_2805766_M1" bus1="UC2805766.2.4" phases=1 conn=delta model=2 kv=0.22 kw = 0.2739986476424913 pf=0.92 status=variable vmaxpu=1.5 vminpu=0.93 daily="RU6_SA" 
New "Load.BT_2805766_M2" bus1="UC2805766.2.4" phases=1 conn=delta model=3 kv=0.22 kw = 0.2739986476424913 pf=0.92 status=variable vmaxpu=1.5 vminpu=0.93 daily="RU6_SA"
 
New "Load.BT_2817050_M1" bus1="UC2817050.2.4" phases=1 conn=delta model=2 kv=0.22 kw = 0.1791129188555983 pf=0.92 status=variable vmaxpu=1.5 vminpu=0.93 daily="RU7_SA" 
New "Load.BT_2817050_M2" bus1="UC2817050.2.4" phases=1 conn=delta model=3 kv=0.22 kw = 0.1791129188555983 pf=0.92 status=variable vmaxpu=1.5 vminpu=0.93 daily="RU7_SA"
 
New "Load.BT_2818311_M1" bus1="UC2818311.2.4" phases=1 conn=delta model=2 kv=0.22 kw = 0.05703502887748261 pf=0.92 status=variable vmaxpu=1.5 vminpu=0.93 daily="RU2_SA" 
New "Load.BT_2818311_M2" bus1="UC2818311.2.4" phases=1 conn=delta model=3 kv=0.22 kw = 0.05703502887748261 pf=0.92 status=variable vmaxpu=1.5 vminpu=0.93 daily="RU2_SA"
 
New "Load.BT_2825858_M1" bus1="UC2825858.2.4" phases=1 conn=delta model=2 kv=0.22 kw = 0.2607447708674089 pf=0.92 status=variable vmaxpu=1.5 vminpu=0.93 daily="RU4_SA" 
New "Load.BT_2825858_M2" bus1="UC2825858.2.4" phases=1 conn=delta model=3 kv=0.22 kw = 0.2607447708674089 pf=0.92 status=variable vmaxpu=1.5 vminpu=0.93 daily="RU4_SA"
 
New "Load.BT_2817028_M1" bus1="UC2817028.1.4" phases=1 conn=delta model=2 kv=0.22 kw = 1.978822620004398 pf=0.92 status=variable vmaxpu=1.5 vminpu=0.93 daily="RU8_SA" 
New "Load.BT_2817028_M2" bus1="UC2817028.1.4" phases=1 conn=delta model=3 kv=0.22 kw = 1.978822620004398 pf=0.92 status=variable vmaxpu=1.5 vminpu=0.93 daily="RU8_SA"
 
New "Load.BT_2817013_M1" bus1="UC2817013.1.4" phases=1 conn=delta model=2 kv=0.22 kw = 0.078210840915936 pf=0.92 status=variable vmaxpu=1.5 vminpu=0.93 daily="RU3_SA" 
New "Load.BT_2817013_M2" bus1="UC2817013.1.4" phases=1 conn=delta model=3 kv=0.22 kw = 0.078210840915936 pf=0.92 status=variable vmaxpu=1.5 vminpu=0.93 daily="RU3_SA"
 
New "Load.BT_226211_M1" bus1="UC226211.1.4" phases=1 conn=delta model=2 kv=0.22 kw = 0.07458426853209264 pf=0.92 status=variable vmaxpu=1.5 vminpu=0.93 daily="RU2_SA" 
New "Load.BT_226211_M2" bus1="UC226211.1.4" phases=1 conn=delta model=3 kv=0.22 kw = 0.07458426853209264 pf=0.92 status=variable vmaxpu=1.5 vminpu=0.93 daily="RU2_SA"
 
New "Load.BT_205798_M1" bus1="UC205798.1.4" phases=1 conn=delta model=2 kv=0.22 kw = 0.02138780144200649 pf=0.92 status=variable vmaxpu=1.5 vminpu=0.93 daily="RU5_SA" 
New "Load.BT_205798_M2" bus1="UC205798.1.4" phases=1 conn=delta model=3 kv=0.22 kw = 0.02138780144200649 pf=0.92 status=variable vmaxpu=1.5 vminpu=0.93 daily="RU5_SA"
 
New "Load.BT_221678_M1" bus1="UC221678.1.4" phases=1 conn=delta model=2 kv=0.22 kw = 0.08623246562526278 pf=0.92 status=variable vmaxpu=1.5 vminpu=0.93 daily="RU3_SA" 
New "Load.BT_221678_M2" bus1="UC221678.1.4" phases=1 conn=delta model=3 kv=0.22 kw = 0.08623246562526278 pf=0.92 status=variable vmaxpu=1.5 vminpu=0.93 daily="RU3_SA"
 
New "Load.BT_205762_M1" bus1="UC205762.2.4" phases=1 conn=delta model=2 kv=0.22 kw = 0.5422125774880356 pf=0.92 status=variable vmaxpu=1.5 vminpu=0.93 daily="RU7_SA" 
New "Load.BT_205762_M2" bus1="UC205762.2.4" phases=1 conn=delta model=3 kv=0.22 kw = 0.5422125774880356 pf=0.92 status=variable vmaxpu=1.5 vminpu=0.93 daily="RU7_SA"
 
New "Load.BT_205763_M1" bus1="UC205763.1.2.4" phases=2 conn=delta model=2 kv=0.44 kw = 0.4729080541065878 pf=0.92 status=variable vmaxpu=1.5 vminpu=0.93 daily="RU5_SA" 
New "Load.BT_205763_M2" bus1="UC205763.1.2.4" phases=2 conn=delta model=3 kv=0.44 kw = 0.4729080541065878 pf=0.92 status=variable vmaxpu=1.5 vminpu=0.93 daily="RU5_SA"
 
New "Load.BT_205767_M1" bus1="UC205767.1.2.4" phases=2 conn=delta model=2 kv=0.44 kw = 0.07857273208995855 pf=0.92 status=variable vmaxpu=1.5 vminpu=0.93 daily="RU2_SA" 
New "Load.BT_205767_M2" bus1="UC205767.1.2.4" phases=2 conn=delta model=3 kv=0.44 kw = 0.07857273208995855 pf=0.92 status=variable vmaxpu=1.5 vminpu=0.93 daily="RU2_SA"
 
New "Load.BT_221287_M1" bus1="UC221287.1.2.3.4" phases=3 conn=delta model=2 kv=0.38 kw = 0.06780388048372057 pf=0.92 status=variable vmaxpu=1.5 vminpu=0.93 daily="RU2_SA" 
New "Load.BT_221287_M2" bus1="UC221287.1.2.3.4" phases=3 conn=delta model=3 kv=0.38 kw = 0.06780388048372057 pf=0.92 status=variable vmaxpu=1.5 vminpu=0.93 daily="RU2_SA"
 
New "Load.BT_205749_M1" bus1="UC205749.1.2.4" phases=2 conn=delta model=2 kv=0.44 kw = 0.22529588746865362 pf=0.92 status=variable vmaxpu=1.5 vminpu=0.93 daily="RU8_SA" 
New "Load.BT_205749_M2" bus1="UC205749.1.2.4" phases=2 conn=delta model=3 kv=0.44 kw = 0.22529588746865362 pf=0.92 status=variable vmaxpu=1.5 vminpu=0.93 daily="RU8_SA"
 
New "Load.BT_205751_M1" bus1="UC205751.2.4" phases=1 conn=delta model=2 kv=0.22 kw = 0.17033577996363394 pf=0.92 status=variable vmaxpu=1.5 vminpu=0.93 daily="RU4_SA" 
New "Load.BT_205751_M2" bus1="UC205751.2.4" phases=1 conn=delta model=3 kv=0.22 kw = 0.17033577996363394 pf=0.92 status=variable vmaxpu=1.5 vminpu=0.93 daily="RU4_SA"
 
New "Load.BT_205752_M1" bus1="UC205752.1.2.3.4" phases=3 conn=delta model=2 kv=0.38 kw = 0.025947869966159155 pf=0.92 status=variable vmaxpu=1.5 vminpu=0.93 daily="RU1_SA" 
New "Load.BT_205752_M2" bus1="UC205752.1.2.3.4" phases=3 conn=delta model=3 kv=0.38 kw = 0.025947869966159155 pf=0.92 status=variable vmaxpu=1.5 vminpu=0.93 daily="RU1_SA"
 
New "Load.BT_205753_M1" bus1="UC205753.2.4" phases=1 conn=delta model=2 kv=0.22 kw = 0.040633601634831935 pf=0.92 status=variable vmaxpu=1.5 vminpu=0.93 daily="CO6_SA" 
New "Load.BT_205753_M2" bus1="UC205753.2.4" phases=1 conn=delta model=3 kv=0.22 kw = 0.040633601634831935 pf=0.92 status=variable vmaxpu=1.5 vminpu=0.93 daily="CO6_SA"
 
New "Load.BT_205754_M1" bus1="UC205754.1.2.3.4" phases=3 conn=delta model=2 kv=0.38 kw = 0.3560620319434665 pf=0.92 status=variable vmaxpu=1.5 vminpu=0.93 daily="RU8_SA" 
New "Load.BT_205754_M2" bus1="UC205754.1.2.3.4" phases=3 conn=delta model=3 kv=0.38 kw = 0.3560620319434665 pf=0.92 status=variable vmaxpu=1.5 vminpu=0.93 daily="RU8_SA"
 
New "Load.BT_205755_M1" bus1="UC205755.1.4" phases=1 conn=delta model=2 kv=0.22 kw = 0.23062171039314464 pf=0.92 status=variable vmaxpu=1.5 vminpu=0.93 daily="RU3_SA" 
New "Load.BT_205755_M2" bus1="UC205755.1.4" phases=1 conn=delta model=3 kv=0.22 kw = 0.23062171039314464 pf=0.92 status=variable vmaxpu=1.5 vminpu=0.93 daily="RU3_SA"
 
New "Load.BT_205747_M1" bus1="UC205747.1.4" phases=1 conn=delta model=2 kv=0.22 kw = 0.007688257767750861 pf=0.92 status=variable vmaxpu=1.5 vminpu=0.93 daily="RU1_SA" 
New "Load.BT_205747_M2" bus1="UC205747.1.4" phases=1 conn=delta model=3 kv=0.22 kw = 0.007688257767750861 pf=0.92 status=variable vmaxpu=1.5 vminpu=0.93 daily="RU1_SA"
 
New "Load.BT_205746_M1" bus1="UC205746.1.4" phases=1 conn=delta model=2 kv=0.22 kw = 0.020481444315332144 pf=0.92 status=variable vmaxpu=1.5 vminpu=0.93 daily="RU8_SA" 
New "Load.BT_205746_M2" bus1="UC205746.1.4" phases=1 conn=delta model=3 kv=0.22 kw = 0.020481444315332144 pf=0.92 status=variable vmaxpu=1.5 vminpu=0.93 daily="RU8_SA"
 
New "Load.BT_220652_M1" bus1="UC220652.1.4" phases=1 conn=delta model=2 kv=0.22 kw = 0.20912516965517453 pf=0.92 status=variable vmaxpu=1.5 vminpu=0.93 daily="RU5_SA" 
New "Load.BT_220652_M2" bus1="UC220652.1.4" phases=1 conn=delta model=3 kv=0.22 kw = 0.20912516965517453 pf=0.92 status=variable vmaxpu=1.5 vminpu=0.93 daily="RU5_SA"
 
New "Load.BT_221021_M1" bus1="UC221021.1.4" phases=1 conn=delta model=2 kv=0.22 kw = 0.05344541167540328 pf=0.92 status=variable vmaxpu=1.5 vminpu=0.93 daily="RU2_SA" 
New "Load.BT_221021_M2" bus1="UC221021.1.4" phases=1 conn=delta model=3 kv=0.22 kw = 0.05344541167540328 pf=0.92 status=variable vmaxpu=1.5 vminpu=0.93 daily="RU2_SA"
 
New "Load.BT_205739_M1" bus1="UC205739.1.4" phases=1 conn=delta model=2 kv=0.22 kw = 0.46242895709815457 pf=0.92 status=variable vmaxpu=1.5 vminpu=0.93 daily="RE5_SA" 
New "Load.BT_205739_M2" bus1="UC205739.1.4" phases=1 conn=delta model=3 kv=0.22 kw = 0.46242895709815457 pf=0.92 status=variable vmaxpu=1.5 vminpu=0.93 daily="RE5_SA"
 
New "Load.BT_205744_M1" bus1="UC205744.1.2.3.4" phases=3 conn=delta model=2 kv=0.38 kw = 0.20080769131661644 pf=0.92 status=variable vmaxpu=1.5 vminpu=0.93 daily="RU5_SA" 
New "Load.BT_205744_M2" bus1="UC205744.1.2.3.4" phases=3 conn=delta model=3 kv=0.38 kw = 0.20080769131661644 pf=0.92 status=variable vmaxpu=1.5 vminpu=0.93 daily="RU5_SA"
 
New "Load.BT_205745_M1" bus1="UC205745.1.2.3.4" phases=3 conn=delta model=2 kv=0.38 kw = 0.22054039668614484 pf=0.92 status=variable vmaxpu=1.5 vminpu=0.93 daily="RU7_SA" 
New "Load.BT_205745_M2" bus1="UC205745.1.2.3.4" phases=3 conn=delta model=3 kv=0.38 kw = 0.22054039668614484 pf=0.92 status=variable vmaxpu=1.5 vminpu=0.93 daily="RU7_SA"
 
New "Load.BT_205737_M1" bus1="UC205737.2.4" phases=1 conn=delta model=2 kv=0.22 kw = 0.5592068557476587 pf=0.92 status=variable vmaxpu=1.5 vminpu=0.93 daily="RE6_SA" 
New "Load.BT_205737_M2" bus1="UC205737.2.4" phases=1 conn=delta model=3 kv=0.22 kw = 0.5592068557476587 pf=0.92 status=variable vmaxpu=1.5 vminpu=0.93 daily="RE6_SA"
 
New "Load.BT_225866_M1" bus1="UC225866.1.2.3.4" phases=3 conn=delta model=2 kv=0.38 kw = 1.0438139153011459 pf=0.92 status=variable vmaxpu=1.5 vminpu=0.93 daily="RU3_SA" 
New "Load.BT_225866_M2" bus1="UC225866.1.2.3.4" phases=3 conn=delta model=3 kv=0.38 kw = 1.0438139153011459 pf=0.92 status=variable vmaxpu=1.5 vminpu=0.93 daily="RU3_SA"
 
New "Load.BT_228021_M1" bus1="UC228021.2.4" phases=1 conn=delta model=2 kv=0.22 kw = 0.31577633054796755 pf=0.92 status=variable vmaxpu=1.5 vminpu=0.93 daily="RU4_SA" 
New "Load.BT_228021_M2" bus1="UC228021.2.4" phases=1 conn=delta model=3 kv=0.22 kw = 0.31577633054796755 pf=0.92 status=variable vmaxpu=1.5 vminpu=0.93 daily="RU4_SA"
 
New "Load.BT_223629_M1" bus1="UC223629.1.4" phases=1 conn=delta model=2 kv=0.22 kw = 0.0 pf=0.92 status=variable vmaxpu=1.5 vminpu=0.93 daily="RE1_SA" 
New "Load.BT_223629_M2" bus1="UC223629.1.4" phases=1 conn=delta model=3 kv=0.22 kw = 0.0 pf=0.92 status=variable vmaxpu=1.5 vminpu=0.93 daily="RE1_SA"
 
New "Load.BT_217024_M1" bus1="UC217024.1.4" phases=1 conn=delta model=2 kv=0.22 kw = 0.22175885191645503 pf=0.92 status=variable vmaxpu=1.5 vminpu=0.93 daily="RU7_SA" 
New "Load.BT_217024_M2" bus1="UC217024.1.4" phases=1 conn=delta model=3 kv=0.22 kw = 0.22175885191645503 pf=0.92 status=variable vmaxpu=1.5 vminpu=0.93 daily="RU7_SA"
 
New "Load.BT_223627_M1" bus1="UC223627.2.4" phases=1 conn=delta model=2 kv=0.22 kw = 0.10713370872635275 pf=0.92 status=variable vmaxpu=1.5 vminpu=0.93 daily="RU8_SA" 
New "Load.BT_223627_M2" bus1="UC223627.2.4" phases=1 conn=delta model=3 kv=0.22 kw = 0.10713370872635275 pf=0.92 status=variable vmaxpu=1.5 vminpu=0.93 daily="RU8_SA"
 
New "Load.BT_205672_M1" bus1="UC205672.1.4" phases=1 conn=delta model=2 kv=0.22 kw = 0.13321481211347647 pf=0.92 status=variable vmaxpu=1.5 vminpu=0.93 daily="RU6_SA" 
New "Load.BT_205672_M2" bus1="UC205672.1.4" phases=1 conn=delta model=3 kv=0.22 kw = 0.13321481211347647 pf=0.92 status=variable vmaxpu=1.5 vminpu=0.93 daily="RU6_SA"
 
New "Load.BT_205673_M1" bus1="UC205673.2.4" phases=1 conn=delta model=2 kv=0.22 kw = 0.35508458746265226 pf=0.92 status=variable vmaxpu=1.5 vminpu=0.93 daily="RU4_SA" 
New "Load.BT_205673_M2" bus1="UC205673.2.4" phases=1 conn=delta model=3 kv=0.22 kw = 0.35508458746265226 pf=0.92 status=variable vmaxpu=1.5 vminpu=0.93 daily="RU4_SA"
 
New "Load.BT_205666_M1" bus1="UC205666.1.2.3.4" phases=3 conn=delta model=2 kv=0.38 kw = 0.5153094916762764 pf=0.92 status=variable vmaxpu=1.5 vminpu=0.93 daily="RU2_SA" 
New "Load.BT_205666_M2" bus1="UC205666.1.2.3.4" phases=3 conn=delta model=3 kv=0.38 kw = 0.5153094916762764 pf=0.92 status=variable vmaxpu=1.5 vminpu=0.93 daily="RU2_SA"
 
New "Load.BT_205668_M1" bus1="UC205668.1.4" phases=1 conn=delta model=2 kv=0.22 kw = 0.019955551411882745 pf=0.92 status=variable vmaxpu=1.5 vminpu=0.93 daily="RU1_SA" 
New "Load.BT_205668_M2" bus1="UC205668.1.4" phases=1 conn=delta model=3 kv=0.22 kw = 0.019955551411882745 pf=0.92 status=variable vmaxpu=1.5 vminpu=0.93 daily="RU1_SA"
 
New "Load.BT_205669_M1" bus1="UC205669.2.4" phases=1 conn=delta model=2 kv=0.22 kw = 0.07119191929527509 pf=0.92 status=variable vmaxpu=1.5 vminpu=0.93 daily="RU3_SA" 
New "Load.BT_205669_M2" bus1="UC205669.2.4" phases=1 conn=delta model=3 kv=0.22 kw = 0.07119191929527509 pf=0.92 status=variable vmaxpu=1.5 vminpu=0.93 daily="RU3_SA"
 
New "Load.BT_205670_M1" bus1="UC205670.2.4" phases=1 conn=delta model=2 kv=0.22 kw = 0.13102752304894918 pf=0.92 status=variable vmaxpu=1.5 vminpu=0.93 daily="RU4_SA" 
New "Load.BT_205670_M2" bus1="UC205670.2.4" phases=1 conn=delta model=3 kv=0.22 kw = 0.13102752304894918 pf=0.92 status=variable vmaxpu=1.5 vminpu=0.93 daily="RU4_SA"
 
New "Load.BT_205671_M1" bus1="UC205671.2.4" phases=1 conn=delta model=2 kv=0.22 kw = 0.5687539536796081 pf=0.92 status=variable vmaxpu=1.5 vminpu=0.93 daily="RU8_SA" 
New "Load.BT_205671_M2" bus1="UC205671.2.4" phases=1 conn=delta model=3 kv=0.22 kw = 0.5687539536796081 pf=0.92 status=variable vmaxpu=1.5 vminpu=0.93 daily="RU8_SA"
 
New "Load.BT_206078_M1" bus1="UC206078.1.4" phases=1 conn=delta model=2 kv=0.22 kw = 0.005992318554276406 pf=0.92 status=variable vmaxpu=1.5 vminpu=0.93 daily="RU1_SA" 
New "Load.BT_206078_M2" bus1="UC206078.1.4" phases=1 conn=delta model=3 kv=0.22 kw = 0.005992318554276406 pf=0.92 status=variable vmaxpu=1.5 vminpu=0.93 daily="RU1_SA"
 
New "Load.BT_206080_M1" bus1="UC206080.2.4" phases=1 conn=delta model=2 kv=0.22 kw = 0.4690785325152381 pf=0.92 status=variable vmaxpu=1.5 vminpu=0.93 daily="RU4_SA" 
New "Load.BT_206080_M2" bus1="UC206080.2.4" phases=1 conn=delta model=3 kv=0.22 kw = 0.4690785325152381 pf=0.92 status=variable vmaxpu=1.5 vminpu=0.93 daily="RU4_SA"
 
New "Load.BT_205662_M1" bus1="UC205662.1.4" phases=1 conn=delta model=2 kv=0.22 kw = 0.7084605916943975 pf=0.92 status=variable vmaxpu=1.5 vminpu=0.93 daily="RU6_SA" 
New "Load.BT_205662_M2" bus1="UC205662.1.4" phases=1 conn=delta model=3 kv=0.22 kw = 0.7084605916943975 pf=0.92 status=variable vmaxpu=1.5 vminpu=0.93 daily="RU6_SA"
 
New "Load.BT_205664_M1" bus1="UC205664.1.2.4" phases=2 conn=delta model=2 kv=0.44 kw = 0.1453919478565477 pf=0.92 status=variable vmaxpu=1.5 vminpu=0.93 daily="RU3_SA" 
New "Load.BT_205664_M2" bus1="UC205664.1.2.4" phases=2 conn=delta model=3 kv=0.44 kw = 0.1453919478565477 pf=0.92 status=variable vmaxpu=1.5 vminpu=0.93 daily="RU3_SA"
 
New "Load.BT_205655_M1" bus1="UC205655.1.4" phases=1 conn=delta model=2 kv=0.22 kw = 0.2103133808463971 pf=0.92 status=variable vmaxpu=1.5 vminpu=0.93 daily="RU5_SA" 
New "Load.BT_205655_M2" bus1="UC205655.1.4" phases=1 conn=delta model=3 kv=0.22 kw = 0.2103133808463971 pf=0.92 status=variable vmaxpu=1.5 vminpu=0.93 daily="RU5_SA"
 
New "Load.BT_205658_M1" bus1="UC205658.1.4" phases=1 conn=delta model=2 kv=0.22 kw = 0.29481192686013563 pf=0.92 status=variable vmaxpu=1.5 vminpu=0.93 daily="RU4_SA" 
New "Load.BT_205658_M2" bus1="UC205658.1.4" phases=1 conn=delta model=3 kv=0.22 kw = 0.29481192686013563 pf=0.92 status=variable vmaxpu=1.5 vminpu=0.93 daily="RU4_SA"
 
New "Load.BT_205659_M1" bus1="UC205659.1.2.3.4" phases=3 conn=delta model=2 kv=0.38 kw = 0.4130563230751553 pf=0.92 status=variable vmaxpu=1.5 vminpu=0.93 daily="RU7_SA" 
New "Load.BT_205659_M2" bus1="UC205659.1.2.3.4" phases=3 conn=delta model=3 kv=0.38 kw = 0.4130563230751553 pf=0.92 status=variable vmaxpu=1.5 vminpu=0.93 daily="RU7_SA"
 
New "Load.BT_206061_M1" bus1="UC206061.1.4" phases=1 conn=delta model=2 kv=0.22 kw = 0.07206513767692206 pf=0.92 status=variable vmaxpu=1.5 vminpu=0.93 daily="RU4_SA" 
New "Load.BT_206061_M2" bus1="UC206061.1.4" phases=1 conn=delta model=3 kv=0.22 kw = 0.07206513767692206 pf=0.92 status=variable vmaxpu=1.5 vminpu=0.93 daily="RU4_SA"
 
New "Load.BT_205649_M1" bus1="UC205649.1.2.3.4" phases=3 conn=delta model=2 kv=0.38 kw = 0.2787514586491052 pf=0.92 status=variable vmaxpu=1.5 vminpu=0.93 daily="RU3_SA" 
New "Load.BT_205649_M2" bus1="UC205649.1.2.3.4" phases=3 conn=delta model=3 kv=0.38 kw = 0.2787514586491052 pf=0.92 status=variable vmaxpu=1.5 vminpu=0.93 daily="RU3_SA"
 
New "Load.BT_205650_M1" bus1="UC205650.1.4" phases=1 conn=delta model=2 kv=0.22 kw = 0.18619797602224547 pf=0.92 status=variable vmaxpu=1.5 vminpu=0.93 daily="RU6_SA" 
New "Load.BT_205650_M2" bus1="UC205650.1.4" phases=1 conn=delta model=3 kv=0.22 kw = 0.18619797602224547 pf=0.92 status=variable vmaxpu=1.5 vminpu=0.93 daily="RU6_SA"
 
New "Load.BT_205651_M1" bus1="UC205651.1.2.3.4" phases=3 conn=delta model=2 kv=0.38 kw = 0.7030486678889811 pf=0.92 status=variable vmaxpu=1.5 vminpu=0.93 daily="RU7_SA" 
New "Load.BT_205651_M2" bus1="UC205651.1.2.3.4" phases=3 conn=delta model=3 kv=0.38 kw = 0.7030486678889811 pf=0.92 status=variable vmaxpu=1.5 vminpu=0.93 daily="RU7_SA"
 
New "Load.BT_205653_M1" bus1="UC205653.1.2.3.4" phases=3 conn=delta model=2 kv=0.38 kw = 0.12446416160855688 pf=0.92 status=variable vmaxpu=1.5 vminpu=0.93 daily="RU8_SA" 
New "Load.BT_205653_M2" bus1="UC205653.1.2.3.4" phases=3 conn=delta model=3 kv=0.38 kw = 0.12446416160855688 pf=0.92 status=variable vmaxpu=1.5 vminpu=0.93 daily="RU8_SA"
 
New "Load.BT_205654_M1" bus1="UC205654.1.4" phases=1 conn=delta model=2 kv=0.22 kw = 0.027135027415591272 pf=0.92 status=variable vmaxpu=1.5 vminpu=0.93 daily="RU1_SA" 
New "Load.BT_205654_M2" bus1="UC205654.1.4" phases=1 conn=delta model=3 kv=0.22 kw = 0.027135027415591272 pf=0.92 status=variable vmaxpu=1.5 vminpu=0.93 daily="RU1_SA"
 
New "Load.BT_205648_M1" bus1="UC205648.1.4" phases=1 conn=delta model=2 kv=0.22 kw = 0.2777487555604394 pf=0.92 status=variable vmaxpu=1.5 vminpu=0.93 daily="RU3_SA" 
New "Load.BT_205648_M2" bus1="UC205648.1.4" phases=1 conn=delta model=3 kv=0.22 kw = 0.2777487555604394 pf=0.92 status=variable vmaxpu=1.5 vminpu=0.93 daily="RU3_SA"
 
New "Load.BT_205645_M1" bus1="UC205645.2.4" phases=1 conn=delta model=2 kv=0.22 kw = 0.14652110164045307 pf=0.92 status=variable vmaxpu=1.5 vminpu=0.93 daily="RU8_SA" 
New "Load.BT_205645_M2" bus1="UC205645.2.4" phases=1 conn=delta model=3 kv=0.22 kw = 0.14652110164045307 pf=0.92 status=variable vmaxpu=1.5 vminpu=0.93 daily="RU8_SA"
 
New "Load.BT_222266_M1" bus1="UC222266.2.4" phases=1 conn=delta model=2 kv=0.22 kw = 0.06421426328164125 pf=0.92 status=variable vmaxpu=1.5 vminpu=0.93 daily="RU2_SA" 
New "Load.BT_222266_M2" bus1="UC222266.2.4" phases=1 conn=delta model=3 kv=0.22 kw = 0.06421426328164125 pf=0.92 status=variable vmaxpu=1.5 vminpu=0.93 daily="RU2_SA"
 
New "Load.BT_205731_M1" bus1="UC205731.1.4" phases=1 conn=delta model=2 kv=0.22 kw = 0.012578525123335016 pf=0.92 status=variable vmaxpu=1.5 vminpu=0.93 daily="CO4_SA" 
New "Load.BT_205731_M2" bus1="UC205731.1.4" phases=1 conn=delta model=3 kv=0.22 kw = 0.012578525123335016 pf=0.92 status=variable vmaxpu=1.5 vminpu=0.93 daily="CO4_SA"
 
New "Load.BT_205734_M1" bus1="UC205734.1.2.4" phases=2 conn=delta model=2 kv=0.44 kw = 0.487382092124077 pf=0.92 status=variable vmaxpu=1.5 vminpu=0.93 daily="RU7_SA" 
New "Load.BT_205734_M2" bus1="UC205734.1.2.4" phases=2 conn=delta model=3 kv=0.44 kw = 0.487382092124077 pf=0.92 status=variable vmaxpu=1.5 vminpu=0.93 daily="RU7_SA"
 
New "Load.BT_219392_M1" bus1="UC219392.1.4" phases=1 conn=delta model=2 kv=0.22 kw = 0.20587743690264543 pf=0.92 status=variable vmaxpu=1.5 vminpu=0.93 daily="RU6_SA" 
New "Load.BT_219392_M2" bus1="UC219392.1.4" phases=1 conn=delta model=3 kv=0.22 kw = 0.20587743690264543 pf=0.92 status=variable vmaxpu=1.5 vminpu=0.93 daily="RU6_SA"
 
New "Load.BT_219394_M1" bus1="UC219394.1.4" phases=1 conn=delta model=2 kv=0.22 kw = 0.04985579447332395 pf=0.92 status=variable vmaxpu=1.5 vminpu=0.93 daily="RU2_SA" 
New "Load.BT_219394_M2" bus1="UC219394.1.4" phases=1 conn=delta model=3 kv=0.22 kw = 0.04985579447332395 pf=0.92 status=variable vmaxpu=1.5 vminpu=0.93 daily="RU2_SA"
 
New "Load.BT_219377_M1" bus1="UC219377.1.2.4" phases=2 conn=delta model=2 kv=0.44 kw = 2.3549838608702673 pf=0.92 status=variable vmaxpu=1.5 vminpu=0.93 daily="PP7_SA" 
New "Load.BT_219377_M2" bus1="UC219377.1.2.4" phases=2 conn=delta model=3 kv=0.44 kw = 2.3549838608702673 pf=0.92 status=variable vmaxpu=1.5 vminpu=0.93 daily="PP7_SA"
 
New "Load.BT_219381_M1" bus1="UC219381.1.4" phases=1 conn=delta model=2 kv=0.22 kw = 0.10327841813258216 pf=0.92 status=variable vmaxpu=1.5 vminpu=0.93 daily="RU3_SA" 
New "Load.BT_219381_M2" bus1="UC219381.1.4" phases=1 conn=delta model=3 kv=0.22 kw = 0.10327841813258216 pf=0.92 status=variable vmaxpu=1.5 vminpu=0.93 daily="RU3_SA"
 
New "Load.BT_219384_M1" bus1="UC219384.1.4" phases=1 conn=delta model=2 kv=0.22 kw = 0.16243790036386707 pf=0.92 status=variable vmaxpu=1.5 vminpu=0.93 daily="RU3_SA" 
New "Load.BT_219384_M2" bus1="UC219384.1.4" phases=1 conn=delta model=3 kv=0.22 kw = 0.16243790036386707 pf=0.92 status=variable vmaxpu=1.5 vminpu=0.93 daily="RU3_SA"
 
New "Load.BT_225587_M1" bus1="UC225587.1.4" phases=1 conn=delta model=2 kv=0.22 kw = 0.18048655595985233 pf=0.92 status=variable vmaxpu=1.5 vminpu=0.93 daily="RU3_SA" 
New "Load.BT_225587_M2" bus1="UC225587.1.4" phases=1 conn=delta model=3 kv=0.22 kw = 0.18048655595985233 pf=0.92 status=variable vmaxpu=1.5 vminpu=0.93 daily="RU3_SA"
 
New "Load.BT_205729_M1" bus1="UC205729.1.2.4" phases=2 conn=delta model=2 kv=0.44 kw = 0.17257373387427632 pf=0.92 status=variable vmaxpu=1.5 vminpu=0.93 daily="RU6_SA" 
New "Load.BT_205729_M2" bus1="UC205729.1.2.4" phases=2 conn=delta model=3 kv=0.44 kw = 0.17257373387427632 pf=0.92 status=variable vmaxpu=1.5 vminpu=0.93 daily="RU6_SA"
 
New "Load.BT_205730_M1" bus1="UC205730.2.4" phases=1 conn=delta model=2 kv=0.22 kw = 0.24262634035085773 pf=0.92 status=variable vmaxpu=1.5 vminpu=0.93 daily="RU8_SA" 
New "Load.BT_205730_M2" bus1="UC205730.2.4" phases=1 conn=delta model=3 kv=0.22 kw = 0.24262634035085773 pf=0.92 status=variable vmaxpu=1.5 vminpu=0.93 daily="RU8_SA"
 
New "Load.BT_205717_M1" bus1="UC205717.1.2.3.4" phases=3 conn=delta model=2 kv=0.38 kw = 0.16845411889586218 pf=0.92 status=variable vmaxpu=1.5 vminpu=0.93 daily="RU3_SA" 
New "Load.BT_205717_M2" bus1="UC205717.1.2.3.4" phases=3 conn=delta model=3 kv=0.38 kw = 0.16845411889586218 pf=0.92 status=variable vmaxpu=1.5 vminpu=0.93 daily="RU3_SA"
 
New "Load.BT_205719_M1" bus1="UC205719.2.4" phases=1 conn=delta model=2 kv=0.22 kw = 0.22274486916573405 pf=0.92 status=variable vmaxpu=1.5 vminpu=0.93 daily="RE6_SA" 
New "Load.BT_205719_M2" bus1="UC205719.2.4" phases=1 conn=delta model=3 kv=0.22 kw = 0.22274486916573405 pf=0.92 status=variable vmaxpu=1.5 vminpu=0.93 daily="RE6_SA"
 
New "Load.BT_205722_M1" bus1="UC205722.1.2.3.4" phases=3 conn=delta model=2 kv=0.38 kw = 0.12734329226056246 pf=0.92 status=variable vmaxpu=1.5 vminpu=0.93 daily="RU3_SA" 
New "Load.BT_205722_M2" bus1="UC205722.1.2.3.4" phases=3 conn=delta model=3 kv=0.38 kw = 0.12734329226056246 pf=0.92 status=variable vmaxpu=1.5 vminpu=0.93 daily="RU3_SA"
 
New "Load.BT_205727_M1" bus1="UC205727.1.4" phases=1 conn=delta model=2 kv=0.22 kw = 0.14377355413793247 pf=0.92 status=variable vmaxpu=1.5 vminpu=0.93 daily="RU5_SA" 
New "Load.BT_205727_M2" bus1="UC205727.1.4" phases=1 conn=delta model=3 kv=0.22 kw = 0.14377355413793247 pf=0.92 status=variable vmaxpu=1.5 vminpu=0.93 daily="RU5_SA"
 
New "Load.BT_205710_M1" bus1="UC205710.1.2.3.4" phases=3 conn=delta model=2 kv=0.38 kw = 0.30782984822041476 pf=0.92 status=variable vmaxpu=1.5 vminpu=0.93 daily="RU3_SA" 
New "Load.BT_205710_M2" bus1="UC205710.1.2.3.4" phases=3 conn=delta model=3 kv=0.38 kw = 0.30782984822041476 pf=0.92 status=variable vmaxpu=1.5 vminpu=0.93 daily="RU3_SA"
 
New "Load.BT_205711_M1" bus1="UC205711.2.4" phases=1 conn=delta model=2 kv=0.22 kw = 0.15922029962382606 pf=0.92 status=variable vmaxpu=1.5 vminpu=0.93 daily="RU5_SA" 
New "Load.BT_205711_M2" bus1="UC205711.2.4" phases=1 conn=delta model=3 kv=0.22 kw = 0.15922029962382606 pf=0.92 status=variable vmaxpu=1.5 vminpu=0.93 daily="RU5_SA"
 
New "Load.BT_205713_M1" bus1="UC205713.2.4" phases=1 conn=delta model=2 kv=0.22 kw = 0.286773083358432 pf=0.92 status=variable vmaxpu=1.5 vminpu=0.93 daily="RU3_SA" 
New "Load.BT_205713_M2" bus1="UC205713.2.4" phases=1 conn=delta model=3 kv=0.22 kw = 0.286773083358432 pf=0.92 status=variable vmaxpu=1.5 vminpu=0.93 daily="RU3_SA"
 
New "Load.BT_219351_M1" bus1="UC219351.2.4" phases=1 conn=delta model=2 kv=0.22 kw = 0.2120112100739735 pf=0.92 status=variable vmaxpu=1.5 vminpu=0.93 daily="RU7_SA" 
New "Load.BT_219351_M2" bus1="UC219351.2.4" phases=1 conn=delta model=3 kv=0.22 kw = 0.2120112100739735 pf=0.92 status=variable vmaxpu=1.5 vminpu=0.93 daily="RU7_SA"
 
New "Load.BT_219353_M1" bus1="UC219353.2.4" phases=1 conn=delta model=2 kv=0.22 kw = 0.009723384823920206 pf=0.92 status=variable vmaxpu=1.5 vminpu=0.93 daily="RU1_SA" 
New "Load.BT_219353_M2" bus1="UC219353.2.4" phases=1 conn=delta model=3 kv=0.22 kw = 0.009723384823920206 pf=0.92 status=variable vmaxpu=1.5 vminpu=0.93 daily="RU1_SA"
 
New "Load.BT_219354_M1" bus1="UC219354.1.4" phases=1 conn=delta model=2 kv=0.22 kw = 0.18619797602224547 pf=0.92 status=variable vmaxpu=1.5 vminpu=0.93 daily="RU6_SA" 
New "Load.BT_219354_M2" bus1="UC219354.1.4" phases=1 conn=delta model=3 kv=0.22 kw = 0.18619797602224547 pf=0.92 status=variable vmaxpu=1.5 vminpu=0.93 daily="RU6_SA"
 
New "Load.BT_219361_M1" bus1="UC219361.1.2.3.4" phases=3 conn=delta model=2 kv=0.38 kw = 0.13194407080831258 pf=0.92 status=variable vmaxpu=1.5 vminpu=0.93 daily="RU1_SA" 
New "Load.BT_219361_M2" bus1="UC219361.1.2.3.4" phases=3 conn=delta model=3 kv=0.38 kw = 0.13194407080831258 pf=0.92 status=variable vmaxpu=1.5 vminpu=0.93 daily="RU1_SA"
 
New "Load.BT_219363_M1" bus1="UC219363.2.4" phases=1 conn=delta model=2 kv=0.22 kw = 0.08555120576802595 pf=0.92 status=variable vmaxpu=1.5 vminpu=0.93 daily="RU5_SA" 
New "Load.BT_219363_M2" bus1="UC219363.2.4" phases=1 conn=delta model=3 kv=0.22 kw = 0.08555120576802595 pf=0.92 status=variable vmaxpu=1.5 vminpu=0.93 daily="RU5_SA"
 
New "Load.BT_205709_M1" bus1="UC205709.1.4" phases=1 conn=delta model=2 kv=0.22 kw = 0.10327841813258216 pf=0.92 status=variable vmaxpu=1.5 vminpu=0.93 daily="RU3_SA" 
New "Load.BT_205709_M2" bus1="UC205709.1.4" phases=1 conn=delta model=3 kv=0.22 kw = 0.10327841813258216 pf=0.92 status=variable vmaxpu=1.5 vminpu=0.93 daily="RU3_SA"
 
New "Load.BT_225590_M1" bus1="UC225590.2.4" phases=1 conn=delta model=2 kv=0.22 kw = 0.0 pf=0.92 status=variable vmaxpu=1.5 vminpu=0.93 daily="RU3_SA" 
New "Load.BT_225590_M2" bus1="UC225590.2.4" phases=1 conn=delta model=3 kv=0.22 kw = 0.0 pf=0.92 status=variable vmaxpu=1.5 vminpu=0.93 daily="RU3_SA"
 
New "Load.BT_225591_M1" bus1="UC225591.1.4" phases=1 conn=delta model=2 kv=0.22 kw = 0.0631702945859483 pf=0.92 status=variable vmaxpu=1.5 vminpu=0.93 daily="RU3_SA" 
New "Load.BT_225591_M2" bus1="UC225591.1.4" phases=1 conn=delta model=3 kv=0.22 kw = 0.0631702945859483 pf=0.92 status=variable vmaxpu=1.5 vminpu=0.93 daily="RU3_SA"
 
New "Load.BT_225591_M1" bus1="UC225591.1.4" phases=1 conn=delta model=2 kv=0.22 kw = 0.16247412858069696 pf=0.92 status=variable vmaxpu=1.5 vminpu=0.93 daily="RU4_SA" 
New "Load.BT_225591_M2" bus1="UC225591.1.4" phases=1 conn=delta model=3 kv=0.22 kw = 0.16247412858069696 pf=0.92 status=variable vmaxpu=1.5 vminpu=0.93 daily="RU4_SA"
 
New "Load.BT_225593_M1" bus1="UC225593.2.4" phases=1 conn=delta model=2 kv=0.22 kw = 0.15090282128526797 pf=0.92 status=variable vmaxpu=1.5 vminpu=0.93 daily="RU5_SA" 
New "Load.BT_225593_M2" bus1="UC225593.2.4" phases=1 conn=delta model=3 kv=0.22 kw = 0.15090282128526797 pf=0.92 status=variable vmaxpu=1.5 vminpu=0.93 daily="RU5_SA"
 
New "Load.BT_205706_M1" bus1="UC205706.1.2.4" phases=2 conn=delta model=2 kv=0.44 kw = 0.5356685436317637 pf=0.92 status=variable vmaxpu=1.5 vminpu=0.93 daily="RU8_SA" 
New "Load.BT_205706_M2" bus1="UC205706.1.2.4" phases=2 conn=delta model=3 kv=0.44 kw = 0.5356685436317637 pf=0.92 status=variable vmaxpu=1.5 vminpu=0.93 daily="RU8_SA"
 
New "Load.BT_205707_M1" bus1="UC205707.1.4" phases=1 conn=delta model=2 kv=0.22 kw = 0.005739081840378646 pf=0.92 status=variable vmaxpu=1.5 vminpu=0.93 daily="CO3_SA" 
New "Load.BT_205707_M2" bus1="UC205707.1.4" phases=1 conn=delta model=3 kv=0.22 kw = 0.005739081840378646 pf=0.92 status=variable vmaxpu=1.5 vminpu=0.93 daily="CO3_SA"
 
New "Load.BT_225285_M1" bus1="UC225285.1.4" phases=1 conn=delta model=2 kv=0.22 kw = 0.05304656531961669 pf=0.92 status=variable vmaxpu=1.5 vminpu=0.93 daily="RU2_SA" 
New "Load.BT_225285_M2" bus1="UC225285.1.4" phases=1 conn=delta model=3 kv=0.22 kw = 0.05304656531961669 pf=0.92 status=variable vmaxpu=1.5 vminpu=0.93 daily="RU2_SA"
 
New "Load.BT_225286_M1" bus1="UC225286.1.4" phases=1 conn=delta model=2 kv=0.22 kw = 0.10844251549760714 pf=0.92 status=variable vmaxpu=1.5 vminpu=0.93 daily="RU7_SA" 
New "Load.BT_225286_M2" bus1="UC225286.1.4" phases=1 conn=delta model=3 kv=0.22 kw = 0.10844251549760714 pf=0.92 status=variable vmaxpu=1.5 vminpu=0.93 daily="RU7_SA"
 
New "Load.BT_225289_M1" bus1="UC225289.1.4" phases=1 conn=delta model=2 kv=0.22 kw = 0.2109543121088082 pf=0.92 status=variable vmaxpu=1.5 vminpu=0.93 daily="RU4_SA" 
New "Load.BT_225289_M2" bus1="UC225289.1.4" phases=1 conn=delta model=3 kv=0.22 kw = 0.2109543121088082 pf=0.92 status=variable vmaxpu=1.5 vminpu=0.93 daily="RU4_SA"
 
New "Load.BT_225290_M1" bus1="UC225290.2.4" phases=1 conn=delta model=2 kv=0.22 kw = 0.1413811355018843 pf=0.92 status=variable vmaxpu=1.5 vminpu=0.93 daily="RU3_SA" 
New "Load.BT_225290_M2" bus1="UC225290.2.4" phases=1 conn=delta model=3 kv=0.22 kw = 0.1413811355018843 pf=0.92 status=variable vmaxpu=1.5 vminpu=0.93 daily="RU3_SA"
 
New "Load.BT_205695_M1" bus1="UC205695.1.4" phases=1 conn=delta model=2 kv=0.22 kw = 0.4379878092047951 pf=0.92 status=variable vmaxpu=1.5 vminpu=0.93 daily="RU8_SA" 
New "Load.BT_205695_M2" bus1="UC205695.1.4" phases=1 conn=delta model=3 kv=0.22 kw = 0.4379878092047951 pf=0.92 status=variable vmaxpu=1.5 vminpu=0.93 daily="RU8_SA"
 
New "Load.BT_205699_M1" bus1="UC205699.1.4" phases=1 conn=delta model=2 kv=0.22 kw = 0.08665226441102063 pf=0.92 status=variable vmaxpu=1.5 vminpu=0.93 daily="RU8_SA" 
New "Load.BT_205699_M2" bus1="UC205699.1.4" phases=1 conn=delta model=3 kv=0.22 kw = 0.08665226441102063 pf=0.92 status=variable vmaxpu=1.5 vminpu=0.93 daily="RU8_SA"
 
New "Load.BT_205700_M1" bus1="UC205700.1.4" phases=1 conn=delta model=2 kv=0.22 kw = 0.3968625378683425 pf=0.92 status=variable vmaxpu=1.5 vminpu=0.93 daily="RU5_SA" 
New "Load.BT_205700_M2" bus1="UC205700.1.4" phases=1 conn=delta model=3 kv=0.22 kw = 0.3968625378683425 pf=0.92 status=variable vmaxpu=1.5 vminpu=0.93 daily="RU5_SA"
 
New "Load.BT_205703_M1" bus1="UC205703.1.4" phases=1 conn=delta model=2 kv=0.22 kw = 0.0 pf=0.92 status=variable vmaxpu=1.5 vminpu=0.93 daily="RU1_SA" 
New "Load.BT_205703_M2" bus1="UC205703.1.4" phases=1 conn=delta model=3 kv=0.22 kw = 0.0 pf=0.92 status=variable vmaxpu=1.5 vminpu=0.93 daily="RU1_SA"
 
New "Load.BT_218342_M1" bus1="UC218342.1.4" phases=1 conn=delta model=2 kv=0.22 kw = 0.17033577996363394 pf=0.92 status=variable vmaxpu=1.5 vminpu=0.93 daily="RU4_SA" 
New "Load.BT_218342_M2" bus1="UC218342.1.4" phases=1 conn=delta model=3 kv=0.22 kw = 0.17033577996363394 pf=0.92 status=variable vmaxpu=1.5 vminpu=0.93 daily="RU4_SA"
 
New "Load.BT_224968_M1" bus1="UC224968.2.4" phases=1 conn=delta model=2 kv=0.22 kw = 0.0006218443782739667 pf=0.92 status=variable vmaxpu=1.5 vminpu=0.93 daily="RU1_SA" 
New "Load.BT_224968_M2" bus1="UC224968.2.4" phases=1 conn=delta model=3 kv=0.22 kw = 0.0006218443782739667 pf=0.92 status=variable vmaxpu=1.5 vminpu=0.93 daily="RU1_SA"
 
New "Load.BT_225281_M1" bus1="UC225281.1.4" phases=1 conn=delta model=2 kv=0.22 kw = 0.1934363337491901 pf=0.92 status=variable vmaxpu=1.5 vminpu=0.93 daily="RE6_SA" 
New "Load.BT_225281_M2" bus1="UC225281.1.4" phases=1 conn=delta model=3 kv=0.22 kw = 0.1934363337491901 pf=0.92 status=variable vmaxpu=1.5 vminpu=0.93 daily="RE6_SA"
 
New "Load.BT_218304_M1" bus1="UC218304.1.2.3.4" phases=3 conn=delta model=2 kv=0.38 kw = 0.21079275484366328 pf=0.92 status=variable vmaxpu=1.5 vminpu=0.93 daily="RU7_SA" 
New "Load.BT_218304_M2" bus1="UC218304.1.2.3.4" phases=3 conn=delta model=3 kv=0.38 kw = 0.21079275484366328 pf=0.92 status=variable vmaxpu=1.5 vminpu=0.93 daily="RU7_SA"
 
New "Load.BT_218305_M1" bus1="UC218305.3.4" phases=1 conn=delta model=2 kv=0.22 kw = 0.013680576322027266 pf=0.92 status=variable vmaxpu=1.5 vminpu=0.93 daily="RU1_SA" 
New "Load.BT_218305_M2" bus1="UC218305.3.4" phases=1 conn=delta model=3 kv=0.22 kw = 0.013680576322027266 pf=0.92 status=variable vmaxpu=1.5 vminpu=0.93 daily="RU1_SA"
 
New "Load.BT_218309_M1" bus1="UC218309.1.4" phases=1 conn=delta model=2 kv=0.22 kw = 0.009271134366993684 pf=0.92 status=variable vmaxpu=1.5 vminpu=0.93 daily="RU1_SA" 
New "Load.BT_218309_M2" bus1="UC218309.1.4" phases=1 conn=delta model=3 kv=0.22 kw = 0.009271134366993684 pf=0.92 status=variable vmaxpu=1.5 vminpu=0.93 daily="RU1_SA"
 
New "Load.BT_218318_M1" bus1="UC218318.1.4" phases=1 conn=delta model=2 kv=0.22 kw = 0.2364540270532939 pf=0.92 status=variable vmaxpu=1.5 vminpu=0.93 daily="RU5_SA" 
New "Load.BT_218318_M2" bus1="UC218318.1.4" phases=1 conn=delta model=3 kv=0.22 kw = 0.2364540270532939 pf=0.92 status=variable vmaxpu=1.5 vminpu=0.93 daily="RU5_SA"
 
New "Load.BT_218320_M1" bus1="UC218320.1.4" phases=1 conn=delta model=2 kv=0.22 kw = 0.0008385683415556677 pf=0.92 status=variable vmaxpu=1.5 vminpu=0.93 daily="CO4_SA" 
New "Load.BT_218320_M2" bus1="UC218320.1.4" phases=1 conn=delta model=3 kv=0.22 kw = 0.0008385683415556677 pf=0.92 status=variable vmaxpu=1.5 vminpu=0.93 daily="CO4_SA"
 
New "Load.BT_218323_M1" bus1="UC218323.1.4" phases=1 conn=delta model=2 kv=0.22 kw = 0.34984348654069436 pf=0.92 status=variable vmaxpu=1.5 vminpu=0.93 daily="RU4_SA" 
New "Load.BT_218323_M2" bus1="UC218323.1.4" phases=1 conn=delta model=3 kv=0.22 kw = 0.34984348654069436 pf=0.92 status=variable vmaxpu=1.5 vminpu=0.93 daily="RU4_SA"
 
New "Load.BT_223646_M1" bus1="UC223646.1.4" phases=1 conn=delta model=2 kv=0.22 kw = 0.09253235454248927 pf=0.92 status=variable vmaxpu=1.5 vminpu=0.93 daily="RU2_SA" 
New "Load.BT_223646_M2" bus1="UC223646.1.4" phases=1 conn=delta model=3 kv=0.22 kw = 0.09253235454248927 pf=0.92 status=variable vmaxpu=1.5 vminpu=0.93 daily="RU2_SA"
 
New "Load.BT_205687_M1" bus1="UC205687.1.4" phases=1 conn=delta model=2 kv=0.22 kw = 0.12045159944755068 pf=0.92 status=variable vmaxpu=1.5 vminpu=0.93 daily="RU2_SA" 
New "Load.BT_205687_M2" bus1="UC205687.1.4" phases=1 conn=delta model=3 kv=0.22 kw = 0.12045159944755068 pf=0.92 status=variable vmaxpu=1.5 vminpu=0.93 daily="RU2_SA"
 
New "Load.BT_205689_M1" bus1="UC205689.1.4" phases=1 conn=delta model=2 kv=0.22 kw = 0.0 pf=0.92 status=variable vmaxpu=1.5 vminpu=0.93 daily="RU2_SA" 
New "Load.BT_205689_M2" bus1="UC205689.1.4" phases=1 conn=delta model=3 kv=0.22 kw = 0.0 pf=0.92 status=variable vmaxpu=1.5 vminpu=0.93 daily="RU2_SA"
 
New "Load.BT_205691_M1" bus1="UC205691.1.2.4" phases=2 conn=delta model=2 kv=0.44 kw = 0.12413198401483032 pf=0.92 status=variable vmaxpu=1.5 vminpu=0.93 daily="RU6_SA" 
New "Load.BT_205691_M2" bus1="UC205691.1.2.4" phases=2 conn=delta model=3 kv=0.44 kw = 0.12413198401483032 pf=0.92 status=variable vmaxpu=1.5 vminpu=0.93 daily="RU6_SA"
 
New "Load.BT_223645_M1" bus1="UC223645.1.4" phases=1 conn=delta model=2 kv=0.22 kw = 0.20481444315332145 pf=0.92 status=variable vmaxpu=1.5 vminpu=0.93 daily="RU8_SA" 
New "Load.BT_223645_M2" bus1="UC223645.1.4" phases=1 conn=delta model=3 kv=0.22 kw = 0.20481444315332145 pf=0.92 status=variable vmaxpu=1.5 vminpu=0.93 daily="RU8_SA"
 
New "Load.BT_223633_M1" bus1="UC223633.1.4" phases=1 conn=delta model=2 kv=0.22 kw = 0.18771178070535316 pf=0.92 status=variable vmaxpu=1.5 vminpu=0.93 daily="RU6_SA" 
New "Load.BT_223633_M2" bus1="UC223633.1.4" phases=1 conn=delta model=3 kv=0.22 kw = 0.18771178070535316 pf=0.92 status=variable vmaxpu=1.5 vminpu=0.93 daily="RU6_SA"
 
New "Load.BT_223634_M1" bus1="UC223634.1.4" phases=1 conn=delta model=2 kv=0.22 kw = 0.10235023934605618 pf=0.92 status=variable vmaxpu=1.5 vminpu=0.93 daily="RU7_SA" 
New "Load.BT_223634_M2" bus1="UC223634.1.4" phases=1 conn=delta model=3 kv=0.22 kw = 0.10235023934605618 pf=0.92 status=variable vmaxpu=1.5 vminpu=0.93 daily="RU7_SA"
 
New "Load.BT_223644_M1" bus1="UC223644.1.4" phases=1 conn=delta model=2 kv=0.22 kw = 0.15498300197022621 pf=0.92 status=variable vmaxpu=1.5 vminpu=0.93 daily="RE5_SA" 
New "Load.BT_223644_M2" bus1="UC223644.1.4" phases=1 conn=delta model=3 kv=0.22 kw = 0.15498300197022621 pf=0.92 status=variable vmaxpu=1.5 vminpu=0.93 daily="RE5_SA"
 
New "Load.BT_217026_M1" bus1="UC217026.1.4" phases=1 conn=delta model=2 kv=0.22 kw = 0.13524853056443137 pf=0.92 status=variable vmaxpu=1.5 vminpu=0.93 daily="RU7_SA" 
New "Load.BT_217026_M2" bus1="UC217026.1.4" phases=1 conn=delta model=3 kv=0.22 kw = 0.13524853056443137 pf=0.92 status=variable vmaxpu=1.5 vminpu=0.93 daily="RU7_SA"
 
New "Load.BT_217031_M1" bus1="UC217031.1.4" phases=1 conn=delta model=2 kv=0.22 kw = 0.16248201994800557 pf=0.92 status=variable vmaxpu=1.5 vminpu=0.93 daily="RE2_SA" 
New "Load.BT_217031_M2" bus1="UC217031.1.4" phases=1 conn=delta model=3 kv=0.22 kw = 0.16248201994800557 pf=0.92 status=variable vmaxpu=1.5 vminpu=0.93 daily="RE2_SA"
 
New "Load.BT_218301_M1" bus1="UC218301.1.2.4" phases=2 conn=delta model=2 kv=0.44 kw = 0.20440293595636075 pf=0.92 status=variable vmaxpu=1.5 vminpu=0.93 daily="RU4_SA" 
New "Load.BT_218301_M2" bus1="UC218301.1.2.4" phases=2 conn=delta model=3 kv=0.44 kw = 0.20440293595636075 pf=0.92 status=variable vmaxpu=1.5 vminpu=0.93 daily="RU4_SA"
 
New "Load.BT_223630_M1" bus1="UC223630.2.4" phases=1 conn=delta model=2 kv=0.22 kw = 0.057154076053953236 pf=0.92 status=variable vmaxpu=1.5 vminpu=0.93 daily="RU3_SA" 
New "Load.BT_223630_M2" bus1="UC223630.2.4" phases=1 conn=delta model=3 kv=0.22 kw = 0.057154076053953236 pf=0.92 status=variable vmaxpu=1.5 vminpu=0.93 daily="RU3_SA"
 
New "Load.BT_223631_M1" bus1="UC223631.2.4" phases=1 conn=delta model=2 kv=0.22 kw = 0.15743568704319943 pf=0.92 status=variable vmaxpu=1.5 vminpu=0.93 daily="RU6_SA" 
New "Load.BT_223631_M2" bus1="UC223631.2.4" phases=1 conn=delta model=3 kv=0.22 kw = 0.15743568704319943 pf=0.92 status=variable vmaxpu=1.5 vminpu=0.93 daily="RU6_SA"
 
New "Load.BT_222260_M1" bus1="UC222260.1.4" phases=1 conn=delta model=2 kv=0.22 kw = 0.3740657557052291 pf=0.92 status=variable vmaxpu=1.5 vminpu=0.93 daily="RU7_SA" 
New "Load.BT_222260_M2" bus1="UC222260.1.4" phases=1 conn=delta model=3 kv=0.22 kw = 0.3740657557052291 pf=0.92 status=variable vmaxpu=1.5 vminpu=0.93 daily="RU7_SA"
 
New "Load.BT_222263_M1" bus1="UC222263.1.4" phases=1 conn=delta model=2 kv=0.22 kw = 0.11606428953389818 pf=0.92 status=variable vmaxpu=1.5 vminpu=0.93 daily="RU2_SA" 
New "Load.BT_222263_M2" bus1="UC222263.1.4" phases=1 conn=delta model=3 kv=0.22 kw = 0.11606428953389818 pf=0.92 status=variable vmaxpu=1.5 vminpu=0.93 daily="RU2_SA"
 
New "Load.BT_205680_M1" bus1="UC205680.1.2.3.4" phases=3 conn=delta model=2 kv=0.38 kw = 0.22814011550993044 pf=0.92 status=variable vmaxpu=1.5 vminpu=0.93 daily="RU2_SA" 
New "Load.BT_205680_M2" bus1="UC205680.1.2.3.4" phases=3 conn=delta model=3 kv=0.38 kw = 0.22814011550993044 pf=0.92 status=variable vmaxpu=1.5 vminpu=0.93 daily="RU2_SA"
 
New "Load.BT_205681_M1" bus1="UC205681.1.2.4" phases=2 conn=delta model=2 kv=0.44 kw = 0.6648591923900128 pf=0.92 status=variable vmaxpu=1.5 vminpu=0.93 daily="RU8_SA" 
New "Load.BT_205681_M2" bus1="UC205681.1.2.4" phases=2 conn=delta model=3 kv=0.44 kw = 0.6648591923900128 pf=0.92 status=variable vmaxpu=1.5 vminpu=0.93 daily="RU8_SA"
 
New "Load.BT_205675_M1" bus1="UC205675.2.4" phases=1 conn=delta model=2 kv=0.22 kw = 0.05228129241379363 pf=0.92 status=variable vmaxpu=1.5 vminpu=0.93 daily="RU5_SA" 
New "Load.BT_205675_M2" bus1="UC205675.2.4" phases=1 conn=delta model=3 kv=0.22 kw = 0.05228129241379363 pf=0.92 status=variable vmaxpu=1.5 vminpu=0.93 daily="RU5_SA"
 
New "Load.BT_238952_M1" bus1="UC238952.2.4" phases=1 conn=delta model=2 kv=0.22 kw = 0.0 pf=0.92 status=variable vmaxpu=1.5 vminpu=0.93 daily="RE3_SA" 
New "Load.BT_238952_M2" bus1="UC238952.2.4" phases=1 conn=delta model=3 kv=0.22 kw = 0.0 pf=0.92 status=variable vmaxpu=1.5 vminpu=0.93 daily="RE3_SA"
 
New "Load.BT_205735_M1" bus1="UC205735.3.1.4" phases=2 conn=delta model=2 kv=0.38 kw = 0.7806547526332367 pf=0.92 status=variable vmaxpu=1.5 vminpu=0.93 daily="RU5_SA" 
New "Load.BT_205735_M2" bus1="UC205735.3.1.4" phases=2 conn=delta model=3 kv=0.38 kw = 0.7806547526332367 pf=0.92 status=variable vmaxpu=1.5 vminpu=0.93 daily="RU5_SA"
 
New "Load.BT_238959_M1" bus1="UC238959.1.4" phases=1 conn=delta model=2 kv=0.22 kw = 0.0 pf=0.92 status=variable vmaxpu=1.5 vminpu=0.93 daily="RE2_SA" 
New "Load.BT_238959_M2" bus1="UC238959.1.4" phases=1 conn=delta model=3 kv=0.22 kw = 0.0 pf=0.92 status=variable vmaxpu=1.5 vminpu=0.93 daily="RE2_SA"
 
New "Load.BT_221689_M1" bus1="UC221689.1.4" phases=1 conn=delta model=2 kv=0.22 kw = 0.6842397167646744 pf=0.92 status=variable vmaxpu=1.5 vminpu=0.93 daily="RU6_SA" 
New "Load.BT_221689_M2" bus1="UC221689.1.4" phases=1 conn=delta model=3 kv=0.22 kw = 0.6842397167646744 pf=0.92 status=variable vmaxpu=1.5 vminpu=0.93 daily="RU6_SA"
 
New "Load.BT_238205_M1" bus1="UC238205.2.4" phases=1 conn=delta model=2 kv=0.22 kw = 0.048232518107727496 pf=0.92 status=variable vmaxpu=1.5 vminpu=0.93 daily="RE1_SA" 
New "Load.BT_238205_M2" bus1="UC238205.2.4" phases=1 conn=delta model=3 kv=0.22 kw = 0.048232518107727496 pf=0.92 status=variable vmaxpu=1.5 vminpu=0.93 daily="RE1_SA"
 
New "Load.BT_235961_M1" bus1="UC235961.1.4" phases=1 conn=delta model=2 kv=0.22 kw = 0.024220874929722993 pf=0.92 status=variable vmaxpu=1.5 vminpu=0.93 daily="RU6_SA" 
New "Load.BT_235961_M2" bus1="UC235961.1.4" phases=1 conn=delta model=3 kv=0.22 kw = 0.024220874929722993 pf=0.92 status=variable vmaxpu=1.5 vminpu=0.93 daily="RU6_SA"
 
New "Load.BT_237573_M1" bus1="UC237573.1.4" phases=1 conn=delta model=2 kv=0.22 kw = 0.05915948223128493 pf=0.92 status=variable vmaxpu=1.5 vminpu=0.93 daily="RU3_SA" 
New "Load.BT_237573_M2" bus1="UC237573.1.4" phases=1 conn=delta model=3 kv=0.22 kw = 0.05915948223128493 pf=0.92 status=variable vmaxpu=1.5 vminpu=0.93 daily="RU3_SA"
 
New "Load.BT_237359_M1" bus1="UC237359.2.4" phases=1 conn=delta model=2 kv=0.22 kw = 0.09771735716771497 pf=0.92 status=variable vmaxpu=1.5 vminpu=0.93 daily="RU2_SA" 
New "Load.BT_237359_M2" bus1="UC237359.2.4" phases=1 conn=delta model=3 kv=0.22 kw = 0.09771735716771497 pf=0.92 status=variable vmaxpu=1.5 vminpu=0.93 daily="RU2_SA"
 
New "Load.BT_237167_M1" bus1="UC237167.2.4" phases=1 conn=delta model=2 kv=0.22 kw = 0.1758552563009422 pf=0.92 status=variable vmaxpu=1.5 vminpu=0.93 daily="RU5_SA" 
New "Load.BT_237167_M2" bus1="UC237167.2.4" phases=1 conn=delta model=3 kv=0.22 kw = 0.1758552563009422 pf=0.92 status=variable vmaxpu=1.5 vminpu=0.93 daily="RU5_SA"
 
New "Load.BT_236486_M1" bus1="UC236486.1.4" phases=1 conn=delta model=2 kv=0.22 kw = 0.23766733524790687 pf=0.92 status=variable vmaxpu=1.5 vminpu=0.93 daily="RU6_SA" 
New "Load.BT_236486_M2" bus1="UC236486.1.4" phases=1 conn=delta model=3 kv=0.22 kw = 0.23766733524790687 pf=0.92 status=variable vmaxpu=1.5 vminpu=0.93 daily="RU6_SA"
 
New "Load.BT_2836677_M1" bus1="UC2836677.1.4" phases=1 conn=delta model=2 kv=0.22 kw = 0.08415658107097083 pf=0.92 status=variable vmaxpu=1.5 vminpu=0.93 daily="RU2_SA" 
New "Load.BT_2836677_M2" bus1="UC2836677.1.4" phases=1 conn=delta model=3 kv=0.22 kw = 0.08415658107097083 pf=0.92 status=variable vmaxpu=1.5 vminpu=0.93 daily="RU2_SA"
 
New "Load.BT_2836674_M1" bus1="UC2836674.2.4" phases=1 conn=delta model=2 kv=0.22 kw = 0.004541414049323061 pf=0.92 status=variable vmaxpu=1.5 vminpu=0.93 daily="RU6_SA" 
New "Load.BT_2836674_M2" bus1="UC2836674.2.4" phases=1 conn=delta model=3 kv=0.22 kw = 0.004541414049323061 pf=0.92 status=variable vmaxpu=1.5 vminpu=0.93 daily="RU6_SA"
 
New "Load.BT_235585_M1" bus1="UC235585.1.2.4" phases=2 conn=delta model=2 kv=0.44 kw = 1.2049885277537187 pf=0.92 status=variable vmaxpu=1.5 vminpu=0.93 daily="RU6_SA" 
New "Load.BT_235585_M2" bus1="UC235585.1.2.4" phases=2 conn=delta model=3 kv=0.44 kw = 1.2049885277537187 pf=0.92 status=variable vmaxpu=1.5 vminpu=0.93 daily="RU6_SA"
 
New "Load.BT_2805422_M1" bus1="UC2805422.1.2.4" phases=2 conn=delta model=2 kv=0.44 kw = 0.015304218241009724 pf=0.92 status=variable vmaxpu=1.5 vminpu=0.93 daily="CO3_SA" 
New "Load.BT_2805422_M2" bus1="UC2805422.1.2.4" phases=2 conn=delta model=3 kv=0.44 kw = 0.015304218241009724 pf=0.92 status=variable vmaxpu=1.5 vminpu=0.93 daily="CO3_SA"
 
New "Load.BT_2835970_M1" bus1="UC2835970.1.4" phases=1 conn=delta model=2 kv=0.22 kw = 0.05025464082911055 pf=0.92 status=variable vmaxpu=1.5 vminpu=0.93 daily="RU2_SA" 
New "Load.BT_2835970_M2" bus1="UC2835970.1.4" phases=1 conn=delta model=3 kv=0.22 kw = 0.05025464082911055 pf=0.92 status=variable vmaxpu=1.5 vminpu=0.93 daily="RU2_SA"
 
New "Load.BT_236232_M1" bus1="UC236232.1.2.3.4" phases=3 conn=delta model=2 kv=0.38 kw = 0.612651587174832 pf=0.92 status=variable vmaxpu=1.5 vminpu=0.93 daily="RU3_SA" 
New "Load.BT_236232_M2" bus1="UC236232.1.2.3.4" phases=3 conn=delta model=3 kv=0.38 kw = 0.612651587174832 pf=0.92 status=variable vmaxpu=1.5 vminpu=0.93 daily="RU3_SA"
 
New "Load.BT_205652_M1" bus1="UC205652.1.4" phases=1 conn=delta model=2 kv=0.22 kw = 0.22576012633229067 pf=0.92 status=variable vmaxpu=1.5 vminpu=0.93 daily="RU5_SA" 
New "Load.BT_205652_M2" bus1="UC205652.1.4" phases=1 conn=delta model=3 kv=0.22 kw = 0.22576012633229067 pf=0.92 status=variable vmaxpu=1.5 vminpu=0.93 daily="RU5_SA"
 
New "Load.BT_205761_M1" bus1="UC205761.1.2.3.4" phases=3 conn=delta model=2 kv=0.38 kw = 1.1579893516745483 pf=0.92 status=variable vmaxpu=1.5 vminpu=0.93 daily="RU8_SA" 
New "Load.BT_205761_M2" bus1="UC205761.1.2.3.4" phases=3 conn=delta model=3 kv=0.38 kw = 1.1579893516745483 pf=0.92 status=variable vmaxpu=1.5 vminpu=0.93 daily="RU8_SA"
 
New "Load.BT_225860_M1" bus1="UC225860.2.4" phases=1 conn=delta model=2 kv=0.22 kw = 0.12911862754444614 pf=0.92 status=variable vmaxpu=1.5 vminpu=0.93 daily="RE8_SA" 
New "Load.BT_225860_M2" bus1="UC225860.2.4" phases=1 conn=delta model=3 kv=0.22 kw = 0.12911862754444614 pf=0.92 status=variable vmaxpu=1.5 vminpu=0.93 daily="RE8_SA"
 
New "Load.BT_235692_M1" bus1="UC235692.1.4" phases=1 conn=delta model=2 kv=0.22 kw = 0.0939778205851364 pf=0.92 status=variable vmaxpu=1.5 vminpu=0.93 daily="RE7_SA" 
New "Load.BT_235692_M2" bus1="UC235692.1.4" phases=1 conn=delta model=3 kv=0.22 kw = 0.0939778205851364 pf=0.92 status=variable vmaxpu=1.5 vminpu=0.93 daily="RE7_SA"
 
New "Load.BT_235691_M1" bus1="UC235691.2.4" phases=1 conn=delta model=2 kv=0.22 kw = 0.06551376152447459 pf=0.92 status=variable vmaxpu=1.5 vminpu=0.93 daily="RU4_SA" 
...